18
Rings
C -0.208763 -0.975789 -0.095504
C 0.045228 0.295623 -0.380595
C 1.300571 0.857602 -0.348819
C 2.360934 -0.005443 -0.027080
C 2.111776 -1.366987 0.240107
C 0.805131 -1.869462 0.219207
H 1.468477 1.902060 -0.572229
H 3.373539 0.371667 0.002685
H 2.939423 -2.029266 0.465935
H 0.596002 -2.910744 0.426097
N -1.289150 0.716693 -0.702798
C -1.646291 -0.686037 -0.306734
C -1.785682 1.724996 0.228719
H -1.619801 1.449463 1.291036
H -1.288061 2.694431 0.011695
H -2.873536 1.867631 0.046101
H -2.075934 -1.268474 -1.147377
H -2.213863 -0.767963 0.649555
