41
N1118
N            -1.103340     2.302263    -0.379185     0.000000
C            -2.493937     1.992757    -0.884628     0.000000
H            -3.257925     2.662264    -0.443815     0.000000
H            -2.564876     2.097947    -1.984001     0.000000
H            -2.796290     0.955948    -0.638755     0.000000
C            -0.674332     3.658805    -0.902704     0.000000
H            -1.352432     4.466977    -0.566079     0.000000
H             0.341665     3.929334    -0.555154     0.000000
H            -0.664066     3.688395    -2.008489     0.000000
C            -1.118237     2.355000     1.132680     0.000000
H            -1.427335     1.383673     1.570181     0.000000
H            -0.116755     2.586674     1.543396     0.000000
H            -1.816467     3.123738     1.513147     0.000000
C            -0.101531     1.245645    -0.877234     0.000000
H             0.928945     1.589958    -0.615723     0.000000
H            -0.142864     1.208635    -1.991533     0.000000
C            -0.340250    -0.154433    -0.299227     0.000000
H            -0.581933    -0.103567     0.783639     0.000000
H            -1.213359    -0.638225    -0.782407     0.000000
C             0.898339    -1.049691    -0.488870     0.000000
H             0.951276    -1.407729    -1.536901     0.000000
H             1.832085    -0.478347    -0.319756     0.000000
C             0.860179    -2.250715     0.469661     0.000000
H             0.875679    -1.904094     1.520866     0.000000
H            -0.089438    -2.807493     0.342781     0.000000
C             2.040128    -3.206423     0.235959     0.000000
H             2.067410    -3.514220    -0.828118     0.000000
H             3.001158    -2.684653     0.412796     0.000000
C             1.957450    -4.459534     1.123067     0.000000
H             2.183406    -5.353495     0.507712     0.000000
H             0.918225    -4.618014     1.472647     0.000000
C             2.910116    -4.422562     2.331817     0.000000
H             3.851622    -4.947711     2.081386     0.000000
H             3.212609    -3.383673     2.555137     0.000000
C             2.266247    -5.048766     3.584272     0.000000
H             2.321164    -4.334085     4.428135     0.000000
H             1.184000    -5.214111     3.412758     0.000000
C             2.910809    -6.370357     3.992998     0.000000
H             3.136530    -7.001123     3.126403     0.000000
H             3.850490    -6.218168     4.535442     0.000000
H             2.244641    -6.951707     4.639417     0.000000
