          12
 Average: C6H6                
CA      -1.40733    0.00000    0.00000
HA      -2.48161    0.00084   -0.00005
CA      -0.70350   -1.21910   -0.00016
HA      -1.24119   -2.14873    0.00047
CA       0.70367   -1.21929    0.00016
HA       1.24121   -2.14927    0.00133
CA       1.40733    0.00000    0.00000
HA       2.48169    0.00019    0.00047
CA       0.70322    1.21520   -0.00090
HA       1.24052    2.14395   -0.00088
CA      -0.70386    1.21522   -0.00103
HA      -1.24060    2.14426   -0.00056
