7
Acetate
H             0.908559     1.128454     0.253413     0.000000
H            -0.495918     0.880907    -0.943153     0.000000
H             1.014266    -0.098015    -0.992218     0.000000
O             0.407984    -1.123133     1.315883     0.000000
O            -1.573147    -0.641520     0.494928     0.000000
C            -0.353654    -0.482698     0.519430     0.000000
C             0.315847     0.448334    -0.358330     0.000000
