36
Unnamed001
C            10.000000    12.000000    10.000000     0.000000
Cl           10.000000    13.540000    10.000000     0.000000
H            10.000000    11.639500     8.981950     0.000000
H             9.118030    11.640300    10.509000     0.000000
O            11.159200    11.526000    10.669300     0.000000
H            11.159200    10.526000    10.669300     0.000000
C             6.000000    12.000000    10.000000     0.000000
Cl            6.000000    13.540000    10.000000     0.000000
H             6.000000    11.639500     8.981950     0.000000
H             5.118030    11.640300    10.509000     0.000000
O             7.159220    11.526000    10.669300     0.000000
H             7.159220    10.526000    10.669300     0.000000
Cl           14.000000    13.540000    10.000000     0.000000
C            14.000000    12.000000    10.000000     0.000000
H            14.000000    11.639500     8.981950     0.000000
H            13.118000    11.640300    10.509000     0.000000
O            15.159200    11.526000    10.669300     0.000000
H            15.159200    10.526000    10.669300     0.000000
O            11.159200     5.525990    10.669300     0.000000
C            10.000000     6.000000    10.000000     0.000000
Cl           10.000000     7.540000    10.000000     0.000000
H            10.000000     5.639490     8.981950     0.000000
H             9.118030     5.640260    10.509000     0.000000
H            11.159200     4.525990    10.669300     0.000000
C             6.000000     6.000000    10.000000     0.000000
H             6.000000     5.639490     8.981950     0.000000
Cl            6.000000     7.540000    10.000000     0.000000
H             5.118030     5.640260    10.509000     0.000000
O             7.159220     5.525990    10.669300     0.000000
H             7.159220     4.525990    10.669300     0.000000
C            14.000000     6.000000    10.000000     0.000000
Cl           14.000000     7.540000    10.000000     0.000000
H            14.000000     5.639490     8.981950     0.000000
H            15.159200     4.525990    10.669300     0.000000
H            13.118000     5.640260    10.509000     0.000000
O            15.159200     5.525990    10.669300     0.000000
