3
AvgMol Test
Be  1.00  0.0  0.0
N  0.0  0.0  0.0
Dy  1.00  1.00  1.00
3
AvgMol Test
Be  1.01  0.0  0.0
N  0.0  0.0  0.0
Dy  1.01  1.01  1.01
3
AvgMol Test
Be  1.02  0.0  0.0
N  0.0  0.0  0.0
Dy  1.02  1.02  1.02
3
AvgMol Test
Be  1.03  0.0  0.0
N  0.0  0.0  0.0
Dy  1.03  1.03  1.03
3
AvgMol Test
Be  1.04  0.0  0.0
N  0.0  0.0  0.0
Dy  1.04  1.04  1.04
3
AvgMol Test
Be  1.05  0.0  0.0
N  0.0  0.0  0.0
Dy  1.05  1.05  1.05
3
AvgMol Test
Be  1.06  0.0  0.0
N  0.0  0.0  0.0
Dy  1.06  1.06  1.06
3
AvgMol Test
Be  1.07  0.0  0.0
N  0.0  0.0  0.0
Dy  1.07  1.07  1.07
3
AvgMol Test
Be  1.08  0.0  0.0
N  0.0  0.0  0.0
Dy  1.08  1.08  1.08
3
AvgMol Test
Be  1.09  0.0  0.0
N  0.0  0.0  0.0
Dy  1.09  1.09  1.09
3
AvgMol Test
Be  1.10  0.0  0.0
N  0.0  0.0  0.0
Dy  1.10  1.10  1.10
3
AvgMol Test
Be  1.11  0.0  0.0
N  0.0  0.0  0.0
Dy  1.11  1.11  1.11
3
AvgMol Test
Be  1.12  0.0  0.0
N  0.0  0.0  0.0
Dy  1.12  1.12  1.12
3
AvgMol Test
Be  1.13  0.0  0.0
N  0.0  0.0  0.0
Dy  1.13  1.13  1.13
3
AvgMol Test
Be  1.14  0.0  0.0
N  0.0  0.0  0.0
Dy  1.14  1.14  1.14
3
AvgMol Test
Be  1.15  0.0  0.0
N  0.0  0.0  0.0
Dy  1.15  1.15  1.15
3
AvgMol Test
Be  1.16  0.0  0.0
N  0.0  0.0  0.0
Dy  1.16  1.16  1.16
3
AvgMol Test
Be  1.17  0.0  0.0
N  0.0  0.0  0.0
Dy  1.17  1.17  1.17
3
AvgMol Test
Be  1.18  0.0  0.0
N  0.0  0.0  0.0
Dy  1.18  1.18  1.18
3
AvgMol Test
Be  1.19  0.0  0.0
N  0.0  0.0  0.0
Dy  1.19  1.19  1.19
3
AvgMol Test
Be  1.20  0.0  0.0
N  0.0  0.0  0.0
Dy  1.20  1.20  1.20
3
AvgMol Test
Be  1.21  0.0  0.0
N  0.0  0.0  0.0
Dy  1.21  1.21  1.21
3
AvgMol Test
Be  1.22  0.0  0.0
N  0.0  0.0  0.0
Dy  1.22  1.22  1.22
3
AvgMol Test
Be  1.23  0.0  0.0
N  0.0  0.0  0.0
Dy  1.23  1.23  1.23
3
AvgMol Test
Be  1.24  0.0  0.0
N  0.0  0.0  0.0
Dy  1.24  1.24  1.24
3
AvgMol Test
Be  1.25  0.0  0.0
N  0.0  0.0  0.0
Dy  1.25  1.25  1.25
3
AvgMol Test
Be  1.26  0.0  0.0
N  0.0  0.0  0.0
Dy  1.26  1.26  1.26
3
AvgMol Test
Be  1.27  0.0  0.0
N  0.0  0.0  0.0
Dy  1.27  1.27  1.27
3
AvgMol Test
Be  1.28  0.0  0.0
N  0.0  0.0  0.0
Dy  1.28  1.28  1.28
3
AvgMol Test
Be  1.29  0.0  0.0
N  0.0  0.0  0.0
Dy  1.29  1.29  1.29
3
AvgMol Test
Be  1.30  0.0  0.0
N  0.0  0.0  0.0
Dy  1.30  1.30  1.30
3
AvgMol Test
Be  1.31  0.0  0.0
N  0.0  0.0  0.0
Dy  1.31  1.31  1.31
3
AvgMol Test
Be  1.32  0.0  0.0
N  0.0  0.0  0.0
Dy  1.32  1.32  1.32
3
AvgMol Test
Be  1.33  0.0  0.0
N  0.0  0.0  0.0
Dy  1.33  1.33  1.33
3
AvgMol Test
Be  1.34  0.0  0.0
N  0.0  0.0  0.0
Dy  1.34  1.34  1.34
3
AvgMol Test
Be  1.35  0.0  0.0
N  0.0  0.0  0.0
Dy  1.35  1.35  1.35
3
AvgMol Test
Be  1.36  0.0  0.0
N  0.0  0.0  0.0
Dy  1.36  1.36  1.36
3
AvgMol Test
Be  1.37  0.0  0.0
N  0.0  0.0  0.0
Dy  1.37  1.37  1.37
3
AvgMol Test
Be  1.38  0.0  0.0
N  0.0  0.0  0.0
Dy  1.38  1.38  1.38
3
AvgMol Test
Be  1.39  0.0  0.0
N  0.0  0.0  0.0
Dy  1.39  1.39  1.39
3
AvgMol Test
Be  1.40  0.0  0.0
N  0.0  0.0  0.0
Dy  1.40  1.40  1.40
3
AvgMol Test
Be  1.41  0.0  0.0
N  0.0  0.0  0.0
Dy  1.41  1.41  1.41
3
AvgMol Test
Be  1.42  0.0  0.0
N  0.0  0.0  0.0
Dy  1.42  1.42  1.42
3
AvgMol Test
Be  1.43  0.0  0.0
N  0.0  0.0  0.0
Dy  1.43  1.43  1.43
3
AvgMol Test
Be  1.44  0.0  0.0
N  0.0  0.0  0.0
Dy  1.44  1.44  1.44
3
AvgMol Test
Be  1.45  0.0  0.0
N  0.0  0.0  0.0
Dy  1.45  1.45  1.45
3
AvgMol Test
Be  1.46  0.0  0.0
N  0.0  0.0  0.0
Dy  1.46  1.46  1.46
3
AvgMol Test
Be  1.47  0.0  0.0
N  0.0  0.0  0.0
Dy  1.47  1.47  1.47
3
AvgMol Test
Be  1.48  0.0  0.0
N  0.0  0.0  0.0
Dy  1.48  1.48  1.48
3
AvgMol Test
Be  1.49  0.0  0.0
N  0.0  0.0  0.0
Dy  1.49  1.49  1.49
3
AvgMol Test
Be  1.50  0.0  0.0
N  0.0  0.0  0.0
Dy  1.50  1.50  1.50
3
AvgMol Test
Be  1.51  0.0  0.0
N  0.0  0.0  0.0
Dy  1.51  1.51  1.51
3
AvgMol Test
Be  1.52  0.0  0.0
N  0.0  0.0  0.0
Dy  1.52  1.52  1.52
3
AvgMol Test
Be  1.53  0.0  0.0
N  0.0  0.0  0.0
Dy  1.53  1.53  1.53
3
AvgMol Test
Be  1.54  0.0  0.0
N  0.0  0.0  0.0
Dy  1.54  1.54  1.54
3
AvgMol Test
Be  1.55  0.0  0.0
N  0.0  0.0  0.0
Dy  1.55  1.55  1.55
3
AvgMol Test
Be  1.56  0.0  0.0
N  0.0  0.0  0.0
Dy  1.56  1.56  1.56
3
AvgMol Test
Be  1.57  0.0  0.0
N  0.0  0.0  0.0
Dy  1.57  1.57  1.57
3
AvgMol Test
Be  1.58  0.0  0.0
N  0.0  0.0  0.0
Dy  1.58  1.58  1.58
3
AvgMol Test
Be  1.59  0.0  0.0
N  0.0  0.0  0.0
Dy  1.59  1.59  1.59
3
AvgMol Test
Be  1.60  0.0  0.0
N  0.0  0.0  0.0
Dy  1.60  1.60  1.60
3
AvgMol Test
Be  1.61  0.0  0.0
N  0.0  0.0  0.0
Dy  1.61  1.61  1.61
3
AvgMol Test
Be  1.62  0.0  0.0
N  0.0  0.0  0.0
Dy  1.62  1.62  1.62
3
AvgMol Test
Be  1.63  0.0  0.0
N  0.0  0.0  0.0
Dy  1.63  1.63  1.63
3
AvgMol Test
Be  1.64  0.0  0.0
N  0.0  0.0  0.0
Dy  1.64  1.64  1.64
3
AvgMol Test
Be  1.65  0.0  0.0
N  0.0  0.0  0.0
Dy  1.65  1.65  1.65
3
AvgMol Test
Be  1.66  0.0  0.0
N  0.0  0.0  0.0
Dy  1.66  1.66  1.66
3
AvgMol Test
Be  1.67  0.0  0.0
N  0.0  0.0  0.0
Dy  1.67  1.67  1.67
3
AvgMol Test
Be  1.68  0.0  0.0
N  0.0  0.0  0.0
Dy  1.68  1.68  1.68
3
AvgMol Test
Be  1.69  0.0  0.0
N  0.0  0.0  0.0
Dy  1.69  1.69  1.69
3
AvgMol Test
Be  1.70  0.0  0.0
N  0.0  0.0  0.0
Dy  1.70  1.70  1.70
3
AvgMol Test
Be  1.71  0.0  0.0
N  0.0  0.0  0.0
Dy  1.71  1.71  1.71
3
AvgMol Test
Be  1.72  0.0  0.0
N  0.0  0.0  0.0
Dy  1.72  1.72  1.72
3
AvgMol Test
Be  1.73  0.0  0.0
N  0.0  0.0  0.0
Dy  1.73  1.73  1.73
3
AvgMol Test
Be  1.74  0.0  0.0
N  0.0  0.0  0.0
Dy  1.74  1.74  1.74
3
AvgMol Test
Be  1.75  0.0  0.0
N  0.0  0.0  0.0
Dy  1.75  1.75  1.75
3
AvgMol Test
Be  1.76  0.0  0.0
N  0.0  0.0  0.0
Dy  1.76  1.76  1.76
3
AvgMol Test
Be  1.77  0.0  0.0
N  0.0  0.0  0.0
Dy  1.77  1.77  1.77
3
AvgMol Test
Be  1.78  0.0  0.0
N  0.0  0.0  0.0
Dy  1.78  1.78  1.78
3
AvgMol Test
Be  1.79  0.0  0.0
N  0.0  0.0  0.0
Dy  1.79  1.79  1.79
3
AvgMol Test
Be  1.80  0.0  0.0
N  0.0  0.0  0.0
Dy  1.80  1.80  1.80
3
AvgMol Test
Be  1.81  0.0  0.0
N  0.0  0.0  0.0
Dy  1.81  1.81  1.81
3
AvgMol Test
Be  1.82  0.0  0.0
N  0.0  0.0  0.0
Dy  1.82  1.82  1.82
3
AvgMol Test
Be  1.83  0.0  0.0
N  0.0  0.0  0.0
Dy  1.83  1.83  1.83
3
AvgMol Test
Be  1.84  0.0  0.0
N  0.0  0.0  0.0
Dy  1.84  1.84  1.84
3
AvgMol Test
Be  1.85  0.0  0.0
N  0.0  0.0  0.0
Dy  1.85  1.85  1.85
3
AvgMol Test
Be  1.86  0.0  0.0
N  0.0  0.0  0.0
Dy  1.86  1.86  1.86
3
AvgMol Test
Be  1.87  0.0  0.0
N  0.0  0.0  0.0
Dy  1.87  1.87  1.87
3
AvgMol Test
Be  1.88  0.0  0.0
N  0.0  0.0  0.0
Dy  1.88  1.88  1.88
3
AvgMol Test
Be  1.89  0.0  0.0
N  0.0  0.0  0.0
Dy  1.89  1.89  1.89
3
AvgMol Test
Be  1.90  0.0  0.0
N  0.0  0.0  0.0
Dy  1.90  1.90  1.90
3
AvgMol Test
Be  1.91  0.0  0.0
N  0.0  0.0  0.0
Dy  1.91  1.91  1.91
3
AvgMol Test
Be  1.92  0.0  0.0
N  0.0  0.0  0.0
Dy  1.92  1.92  1.92
3
AvgMol Test
Be  1.93  0.0  0.0
N  0.0  0.0  0.0
Dy  1.93  1.93  1.93
3
AvgMol Test
Be  1.94  0.0  0.0
N  0.0  0.0  0.0
Dy  1.94  1.94  1.94
3
AvgMol Test
Be  1.95  0.0  0.0
N  0.0  0.0  0.0
Dy  1.95  1.95  1.95
3
AvgMol Test
Be  1.96  0.0  0.0
N  0.0  0.0  0.0
Dy  1.96  1.96  1.96
3
AvgMol Test
Be  1.97  0.0  0.0
N  0.0  0.0  0.0
Dy  1.97  1.97  1.97
3
AvgMol Test
Be  1.98  0.0  0.0
N  0.0  0.0  0.0
Dy  1.98  1.98  1.98
3
AvgMol Test
Be  1.99  0.0  0.0
N  0.0  0.0  0.0
Dy  1.99  1.99  1.99
3
AvgMol Test
Be  2.00  0.0  0.0
N  0.0  0.0  0.0
Dy  2.00  2.00  2.00
3
AvgMol Test
Be  2.01  0.0  0.0
N  0.0  0.0  0.0
Dy  2.01  2.01  2.01
3
AvgMol Test
Be  2.02  0.0  0.0
N  0.0  0.0  0.0
Dy  2.02  2.02  2.02
3
AvgMol Test
Be  2.03  0.0  0.0
N  0.0  0.0  0.0
Dy  2.03  2.03  2.03
3
AvgMol Test
Be  2.04  0.0  0.0
N  0.0  0.0  0.0
Dy  2.04  2.04  2.04
3
AvgMol Test
Be  2.05  0.0  0.0
N  0.0  0.0  0.0
Dy  2.05  2.05  2.05
3
AvgMol Test
Be  2.06  0.0  0.0
N  0.0  0.0  0.0
Dy  2.06  2.06  2.06
3
AvgMol Test
Be  2.07  0.0  0.0
N  0.0  0.0  0.0
Dy  2.07  2.07  2.07
3
AvgMol Test
Be  2.08  0.0  0.0
N  0.0  0.0  0.0
Dy  2.08  2.08  2.08
3
AvgMol Test
Be  2.09  0.0  0.0
N  0.0  0.0  0.0
Dy  2.09  2.09  2.09
3
AvgMol Test
Be  2.10  0.0  0.0
N  0.0  0.0  0.0
Dy  2.10  2.10  2.10
3
AvgMol Test
Be  2.11  0.0  0.0
N  0.0  0.0  0.0
Dy  2.11  2.11  2.11
3
AvgMol Test
Be  2.12  0.0  0.0
N  0.0  0.0  0.0
Dy  2.12  2.12  2.12
3
AvgMol Test
Be  2.13  0.0  0.0
N  0.0  0.0  0.0
Dy  2.13  2.13  2.13
3
AvgMol Test
Be  2.14  0.0  0.0
N  0.0  0.0  0.0
Dy  2.14  2.14  2.14
3
AvgMol Test
Be  2.15  0.0  0.0
N  0.0  0.0  0.0
Dy  2.15  2.15  2.15
3
AvgMol Test
Be  2.16  0.0  0.0
N  0.0  0.0  0.0
Dy  2.16  2.16  2.16
3
AvgMol Test
Be  2.17  0.0  0.0
N  0.0  0.0  0.0
Dy  2.17  2.17  2.17
3
AvgMol Test
Be  2.18  0.0  0.0
N  0.0  0.0  0.0
Dy  2.18  2.18  2.18
3
AvgMol Test
Be  2.19  0.0  0.0
N  0.0  0.0  0.0
Dy  2.19  2.19  2.19
3
AvgMol Test
Be  2.20  0.0  0.0
N  0.0  0.0  0.0
Dy  2.20  2.20  2.20
3
AvgMol Test
Be  2.21  0.0  0.0
N  0.0  0.0  0.0
Dy  2.21  2.21  2.21
3
AvgMol Test
Be  2.22  0.0  0.0
N  0.0  0.0  0.0
Dy  2.22  2.22  2.22
3
AvgMol Test
Be  2.23  0.0  0.0
N  0.0  0.0  0.0
Dy  2.23  2.23  2.23
3
AvgMol Test
Be  2.24  0.0  0.0
N  0.0  0.0  0.0
Dy  2.24  2.24  2.24
3
AvgMol Test
Be  2.25  0.0  0.0
N  0.0  0.0  0.0
Dy  2.25  2.25  2.25
3
AvgMol Test
Be  2.26  0.0  0.0
N  0.0  0.0  0.0
Dy  2.26  2.26  2.26
3
AvgMol Test
Be  2.27  0.0  0.0
N  0.0  0.0  0.0
Dy  2.27  2.27  2.27
3
AvgMol Test
Be  2.28  0.0  0.0
N  0.0  0.0  0.0
Dy  2.28  2.28  2.28
3
AvgMol Test
Be  2.29  0.0  0.0
N  0.0  0.0  0.0
Dy  2.29  2.29  2.29
3
AvgMol Test
Be  2.30  0.0  0.0
N  0.0  0.0  0.0
Dy  2.30  2.30  2.30
3
AvgMol Test
Be  2.31  0.0  0.0
N  0.0  0.0  0.0
Dy  2.31  2.31  2.31
3
AvgMol Test
Be  2.32  0.0  0.0
N  0.0  0.0  0.0
Dy  2.32  2.32  2.32
3
AvgMol Test
Be  2.33  0.0  0.0
N  0.0  0.0  0.0
Dy  2.33  2.33  2.33
3
AvgMol Test
Be  2.34  0.0  0.0
N  0.0  0.0  0.0
Dy  2.34  2.34  2.34
3
AvgMol Test
Be  2.35  0.0  0.0
N  0.0  0.0  0.0
Dy  2.35  2.35  2.35
3
AvgMol Test
Be  2.36  0.0  0.0
N  0.0  0.0  0.0
Dy  2.36  2.36  2.36
3
AvgMol Test
Be  2.37  0.0  0.0
N  0.0  0.0  0.0
Dy  2.37  2.37  2.37
3
AvgMol Test
Be  2.38  0.0  0.0
N  0.0  0.0  0.0
Dy  2.38  2.38  2.38
3
AvgMol Test
Be  2.39  0.0  0.0
N  0.0  0.0  0.0
Dy  2.39  2.39  2.39
3
AvgMol Test
Be  2.40  0.0  0.0
N  0.0  0.0  0.0
Dy  2.40  2.40  2.40
3
AvgMol Test
Be  2.41  0.0  0.0
N  0.0  0.0  0.0
Dy  2.41  2.41  2.41
3
AvgMol Test
Be  2.42  0.0  0.0
N  0.0  0.0  0.0
Dy  2.42  2.42  2.42
3
AvgMol Test
Be  2.43  0.0  0.0
N  0.0  0.0  0.0
Dy  2.43  2.43  2.43
3
AvgMol Test
Be  2.44  0.0  0.0
N  0.0  0.0  0.0
Dy  2.44  2.44  2.44
3
AvgMol Test
Be  2.45  0.0  0.0
N  0.0  0.0  0.0
Dy  2.45  2.45  2.45
3
AvgMol Test
Be  2.46  0.0  0.0
N  0.0  0.0  0.0
Dy  2.46  2.46  2.46
3
AvgMol Test
Be  2.47  0.0  0.0
N  0.0  0.0  0.0
Dy  2.47  2.47  2.47
3
AvgMol Test
Be  2.48  0.0  0.0
N  0.0  0.0  0.0
Dy  2.48  2.48  2.48
3
AvgMol Test
Be  2.49  0.0  0.0
N  0.0  0.0  0.0
Dy  2.49  2.49  2.49
3
AvgMol Test
Be  2.50  0.0  0.0
N  0.0  0.0  0.0
Dy  2.50  2.50  2.50
3
AvgMol Test
Be  2.51  0.0  0.0
N  0.0  0.0  0.0
Dy  2.51  2.51  2.51
3
AvgMol Test
Be  2.52  0.0  0.0
N  0.0  0.0  0.0
Dy  2.52  2.52  2.52
3
AvgMol Test
Be  2.53  0.0  0.0
N  0.0  0.0  0.0
Dy  2.53  2.53  2.53
3
AvgMol Test
Be  2.54  0.0  0.0
N  0.0  0.0  0.0
Dy  2.54  2.54  2.54
3
AvgMol Test
Be  2.55  0.0  0.0
N  0.0  0.0  0.0
Dy  2.55  2.55  2.55
3
AvgMol Test
Be  2.56  0.0  0.0
N  0.0  0.0  0.0
Dy  2.56  2.56  2.56
3
AvgMol Test
Be  2.57  0.0  0.0
N  0.0  0.0  0.0
Dy  2.57  2.57  2.57
3
AvgMol Test
Be  2.58  0.0  0.0
N  0.0  0.0  0.0
Dy  2.58  2.58  2.58
3
AvgMol Test
Be  2.59  0.0  0.0
N  0.0  0.0  0.0
Dy  2.59  2.59  2.59
3
AvgMol Test
Be  2.60  0.0  0.0
N  0.0  0.0  0.0
Dy  2.60  2.60  2.60
3
AvgMol Test
Be  2.61  0.0  0.0
N  0.0  0.0  0.0
Dy  2.61  2.61  2.61
3
AvgMol Test
Be  2.62  0.0  0.0
N  0.0  0.0  0.0
Dy  2.62  2.62  2.62
3
AvgMol Test
Be  2.63  0.0  0.0
N  0.0  0.0  0.0
Dy  2.63  2.63  2.63
3
AvgMol Test
Be  2.64  0.0  0.0
N  0.0  0.0  0.0
Dy  2.64  2.64  2.64
3
AvgMol Test
Be  2.65  0.0  0.0
N  0.0  0.0  0.0
Dy  2.65  2.65  2.65
3
AvgMol Test
Be  2.66  0.0  0.0
N  0.0  0.0  0.0
Dy  2.66  2.66  2.66
3
AvgMol Test
Be  2.67  0.0  0.0
N  0.0  0.0  0.0
Dy  2.67  2.67  2.67
3
AvgMol Test
Be  2.68  0.0  0.0
N  0.0  0.0  0.0
Dy  2.68  2.68  2.68
3
AvgMol Test
Be  2.69  0.0  0.0
N  0.0  0.0  0.0
Dy  2.69  2.69  2.69
3
AvgMol Test
Be  2.70  0.0  0.0
N  0.0  0.0  0.0
Dy  2.70  2.70  2.70
3
AvgMol Test
Be  2.71  0.0  0.0
N  0.0  0.0  0.0
Dy  2.71  2.71  2.71
3
AvgMol Test
Be  2.72  0.0  0.0
N  0.0  0.0  0.0
Dy  2.72  2.72  2.72
3
AvgMol Test
Be  2.73  0.0  0.0
N  0.0  0.0  0.0
Dy  2.73  2.73  2.73
3
AvgMol Test
Be  2.74  0.0  0.0
N  0.0  0.0  0.0
Dy  2.74  2.74  2.74
3
AvgMol Test
Be  2.75  0.0  0.0
N  0.0  0.0  0.0
Dy  2.75  2.75  2.75
3
AvgMol Test
Be  2.76  0.0  0.0
N  0.0  0.0  0.0
Dy  2.76  2.76  2.76
3
AvgMol Test
Be  2.77  0.0  0.0
N  0.0  0.0  0.0
Dy  2.77  2.77  2.77
3
AvgMol Test
Be  2.78  0.0  0.0
N  0.0  0.0  0.0
Dy  2.78  2.78  2.78
3
AvgMol Test
Be  2.79  0.0  0.0
N  0.0  0.0  0.0
Dy  2.79  2.79  2.79
3
AvgMol Test
Be  2.80  0.0  0.0
N  0.0  0.0  0.0
Dy  2.80  2.80  2.80
3
AvgMol Test
Be  2.81  0.0  0.0
N  0.0  0.0  0.0
Dy  2.81  2.81  2.81
3
AvgMol Test
Be  2.82  0.0  0.0
N  0.0  0.0  0.0
Dy  2.82  2.82  2.82
3
AvgMol Test
Be  2.83  0.0  0.0
N  0.0  0.0  0.0
Dy  2.83  2.83  2.83
3
AvgMol Test
Be  2.84  0.0  0.0
N  0.0  0.0  0.0
Dy  2.84  2.84  2.84
3
AvgMol Test
Be  2.85  0.0  0.0
N  0.0  0.0  0.0
Dy  2.85  2.85  2.85
3
AvgMol Test
Be  2.86  0.0  0.0
N  0.0  0.0  0.0
Dy  2.86  2.86  2.86
3
AvgMol Test
Be  2.87  0.0  0.0
N  0.0  0.0  0.0
Dy  2.87  2.87  2.87
3
AvgMol Test
Be  2.88  0.0  0.0
N  0.0  0.0  0.0
Dy  2.88  2.88  2.88
3
AvgMol Test
Be  2.89  0.0  0.0
N  0.0  0.0  0.0
Dy  2.89  2.89  2.89
3
AvgMol Test
Be  2.90  0.0  0.0
N  0.0  0.0  0.0
Dy  2.90  2.90  2.90
3
AvgMol Test
Be  2.91  0.0  0.0
N  0.0  0.0  0.0
Dy  2.91  2.91  2.91
3
AvgMol Test
Be  2.92  0.0  0.0
N  0.0  0.0  0.0
Dy  2.92  2.92  2.92
3
AvgMol Test
Be  2.93  0.0  0.0
N  0.0  0.0  0.0
Dy  2.93  2.93  2.93
3
AvgMol Test
Be  2.94  0.0  0.0
N  0.0  0.0  0.0
Dy  2.94  2.94  2.94
3
AvgMol Test
Be  2.95  0.0  0.0
N  0.0  0.0  0.0
Dy  2.95  2.95  2.95
3
AvgMol Test
Be  2.96  0.0  0.0
N  0.0  0.0  0.0
Dy  2.96  2.96  2.96
3
AvgMol Test
Be  2.97  0.0  0.0
N  0.0  0.0  0.0
Dy  2.97  2.97  2.97
3
AvgMol Test
Be  2.98  0.0  0.0
N  0.0  0.0  0.0
Dy  2.98  2.98  2.98
3
AvgMol Test
Be  2.99  0.0  0.0
N  0.0  0.0  0.0
Dy  2.99  2.99  2.99
3
AvgMol Test
Be  3.00  0.0  0.0
N  0.0  0.0  0.0
Dy  3.00  3.00  3.00
