512
512
He   0.5  0.5  0.5
He   0.5  0.5  1.5
He   0.5  0.5  2.5
He   0.5  0.5  3.5
He   0.5  0.5  4.5
He   0.5  0.5  5.5
He   0.5  0.5  6.5
He   0.5  0.5  7.5
He   0.5  1.5  0.5
He   0.5  1.5  1.5
He   0.5  1.5  2.5
He   0.5  1.5  3.5
He   0.5  1.5  4.5
He   0.5  1.5  5.5
He   0.5  1.5  6.5
He   0.5  1.5  7.5
He   0.5  2.5  0.5
He   0.5  2.5  1.5
He   0.5  2.5  2.5
He   0.5  2.5  3.5
He   0.5  2.5  4.5
He   0.5  2.5  5.5
He   0.5  2.5  6.5
He   0.5  2.5  7.5
He   0.5  3.5  0.5
He   0.5  3.5  1.5
He   0.5  3.5  2.5
He   0.5  3.5  3.5
He   0.5  3.5  4.5
He   0.5  3.5  5.5
He   0.5  3.5  6.5
He   0.5  3.5  7.5
He   0.5  4.5  0.5
He   0.5  4.5  1.5
He   0.5  4.5  2.5
He   0.5  4.5  3.5
He   0.5  4.5  4.5
He   0.5  4.5  5.5
He   0.5  4.5  6.5
He   0.5  4.5  7.5
He   0.5  5.5  0.5
He   0.5  5.5  1.5
He   0.5  5.5  2.5
He   0.5  5.5  3.5
He   0.5  5.5  4.5
He   0.5  5.5  5.5
He   0.5  5.5  6.5
He   0.5  5.5  7.5
He   0.5  6.5  0.5
He   0.5  6.5  1.5
He   0.5  6.5  2.5
He   0.5  6.5  3.5
He   0.5  6.5  4.5
He   0.5  6.5  5.5
He   0.5  6.5  6.5
He   0.5  6.5  7.5
He   0.5  7.5  0.5
He   0.5  7.5  1.5
He   0.5  7.5  2.5
He   0.5  7.5  3.5
He   0.5  7.5  4.5
He   0.5  7.5  5.5
He   0.5  7.5  6.5
He   0.5  7.5  7.5
He   1.5  0.5  0.5
He   1.5  0.5  1.5
He   1.5  0.5  2.5
He   1.5  0.5  3.5
He   1.5  0.5  4.5
He   1.5  0.5  5.5
He   1.5  0.5  6.5
He   1.5  0.5  7.5
He   1.5  1.5  0.5
He   1.5  1.5  1.5
He   1.5  1.5  2.5
He   1.5  1.5  3.5
He   1.5  1.5  4.5
He   1.5  1.5  5.5
He   1.5  1.5  6.5
He   1.5  1.5  7.5
He   1.5  2.5  0.5
He   1.5  2.5  1.5
He   1.5  2.5  2.5
He   1.5  2.5  3.5
He   1.5  2.5  4.5
He   1.5  2.5  5.5
He   1.5  2.5  6.5
He   1.5  2.5  7.5
He   1.5  3.5  0.5
He   1.5  3.5  1.5
He   1.5  3.5  2.5
He   1.5  3.5  3.5
He   1.5  3.5  4.5
He   1.5  3.5  5.5
He   1.5  3.5  6.5
He   1.5  3.5  7.5
He   1.5  4.5  0.5
He   1.5  4.5  1.5
He   1.5  4.5  2.5
He   1.5  4.5  3.5
He   1.5  4.5  4.5
He   1.5  4.5  5.5
He   1.5  4.5  6.5
He   1.5  4.5  7.5
He   1.5  5.5  0.5
He   1.5  5.5  1.5
He   1.5  5.5  2.5
He   1.5  5.5  3.5
He   1.5  5.5  4.5
He   1.5  5.5  5.5
He   1.5  5.5  6.5
He   1.5  5.5  7.5
He   1.5  6.5  0.5
He   1.5  6.5  1.5
He   1.5  6.5  2.5
He   1.5  6.5  3.5
He   1.5  6.5  4.5
He   1.5  6.5  5.5
He   1.5  6.5  6.5
He   1.5  6.5  7.5
He   1.5  7.5  0.5
He   1.5  7.5  1.5
He   1.5  7.5  2.5
He   1.5  7.5  3.5
He   1.5  7.5  4.5
He   1.5  7.5  5.5
He   1.5  7.5  6.5
He   1.5  7.5  7.5
He   2.5  0.5  0.5
He   2.5  0.5  1.5
He   2.5  0.5  2.5
He   2.5  0.5  3.5
He   2.5  0.5  4.5
He   2.5  0.5  5.5
He   2.5  0.5  6.5
He   2.5  0.5  7.5
He   2.5  1.5  0.5
He   2.5  1.5  1.5
He   2.5  1.5  2.5
He   2.5  1.5  3.5
He   2.5  1.5  4.5
He   2.5  1.5  5.5
He   2.5  1.5  6.5
He   2.5  1.5  7.5
He   2.5  2.5  0.5
He   2.5  2.5  1.5
He   2.5  2.5  2.5
He   2.5  2.5  3.5
He   2.5  2.5  4.5
He   2.5  2.5  5.5
He   2.5  2.5  6.5
He   2.5  2.5  7.5
He   2.5  3.5  0.5
He   2.5  3.5  1.5
He   2.5  3.5  2.5
He   2.5  3.5  3.5
He   2.5  3.5  4.5
He   2.5  3.5  5.5
He   2.5  3.5  6.5
He   2.5  3.5  7.5
He   2.5  4.5  0.5
He   2.5  4.5  1.5
He   2.5  4.5  2.5
He   2.5  4.5  3.5
He   2.5  4.5  4.5
He   2.5  4.5  5.5
He   2.5  4.5  6.5
He   2.5  4.5  7.5
He   2.5  5.5  0.5
He   2.5  5.5  1.5
He   2.5  5.5  2.5
He   2.5  5.5  3.5
He   2.5  5.5  4.5
He   2.5  5.5  5.5
He   2.5  5.5  6.5
He   2.5  5.5  7.5
He   2.5  6.5  0.5
He   2.5  6.5  1.5
He   2.5  6.5  2.5
He   2.5  6.5  3.5
He   2.5  6.5  4.5
He   2.5  6.5  5.5
He   2.5  6.5  6.5
He   2.5  6.5  7.5
He   2.5  7.5  0.5
He   2.5  7.5  1.5
He   2.5  7.5  2.5
He   2.5  7.5  3.5
He   2.5  7.5  4.5
He   2.5  7.5  5.5
He   2.5  7.5  6.5
He   2.5  7.5  7.5
He   3.5  0.5  0.5
He   3.5  0.5  1.5
He   3.5  0.5  2.5
He   3.5  0.5  3.5
He   3.5  0.5  4.5
He   3.5  0.5  5.5
He   3.5  0.5  6.5
He   3.5  0.5  7.5
He   3.5  1.5  0.5
He   3.5  1.5  1.5
He   3.5  1.5  2.5
He   3.5  1.5  3.5
He   3.5  1.5  4.5
He   3.5  1.5  5.5
He   3.5  1.5  6.5
He   3.5  1.5  7.5
He   3.5  2.5  0.5
He   3.5  2.5  1.5
He   3.5  2.5  2.5
He   3.5  2.5  3.5
He   3.5  2.5  4.5
He   3.5  2.5  5.5
He   3.5  2.5  6.5
He   3.5  2.5  7.5
He   3.5  3.5  0.5
He   3.5  3.5  1.5
He   3.5  3.5  2.5
He   3.5  3.5  3.5
He   3.5  3.5  4.5
He   3.5  3.5  5.5
He   3.5  3.5  6.5
He   3.5  3.5  7.5
He   3.5  4.5  0.5
He   3.5  4.5  1.5
He   3.5  4.5  2.5
He   3.5  4.5  3.5
He   3.5  4.5  4.5
He   3.5  4.5  5.5
He   3.5  4.5  6.5
He   3.5  4.5  7.5
He   3.5  5.5  0.5
He   3.5  5.5  1.5
He   3.5  5.5  2.5
He   3.5  5.5  3.5
He   3.5  5.5  4.5
He   3.5  5.5  5.5
He   3.5  5.5  6.5
He   3.5  5.5  7.5
He   3.5  6.5  0.5
He   3.5  6.5  1.5
He   3.5  6.5  2.5
He   3.5  6.5  3.5
He   3.5  6.5  4.5
He   3.5  6.5  5.5
He   3.5  6.5  6.5
He   3.5  6.5  7.5
He   3.5  7.5  0.5
He   3.5  7.5  1.5
He   3.5  7.5  2.5
He   3.5  7.5  3.5
He   3.5  7.5  4.5
He   3.5  7.5  5.5
He   3.5  7.5  6.5
He   3.5  7.5  7.5
He   4.5  0.5  0.5
He   4.5  0.5  1.5
He   4.5  0.5  2.5
He   4.5  0.5  3.5
He   4.5  0.5  4.5
He   4.5  0.5  5.5
He   4.5  0.5  6.5
He   4.5  0.5  7.5
He   4.5  1.5  0.5
He   4.5  1.5  1.5
He   4.5  1.5  2.5
He   4.5  1.5  3.5
He   4.5  1.5  4.5
He   4.5  1.5  5.5
He   4.5  1.5  6.5
He   4.5  1.5  7.5
He   4.5  2.5  0.5
He   4.5  2.5  1.5
He   4.5  2.5  2.5
He   4.5  2.5  3.5
He   4.5  2.5  4.5
He   4.5  2.5  5.5
He   4.5  2.5  6.5
He   4.5  2.5  7.5
He   4.5  3.5  0.5
He   4.5  3.5  1.5
He   4.5  3.5  2.5
He   4.5  3.5  3.5
He   4.5  3.5  4.5
He   4.5  3.5  5.5
He   4.5  3.5  6.5
He   4.5  3.5  7.5
He   4.5  4.5  0.5
He   4.5  4.5  1.5
He   4.5  4.5  2.5
He   4.5  4.5  3.5
He   4.5  4.5  4.5
He   4.5  4.5  5.5
He   4.5  4.5  6.5
He   4.5  4.5  7.5
He   4.5  5.5  0.5
He   4.5  5.5  1.5
He   4.5  5.5  2.5
He   4.5  5.5  3.5
He   4.5  5.5  4.5
He   4.5  5.5  5.5
He   4.5  5.5  6.5
He   4.5  5.5  7.5
He   4.5  6.5  0.5
He   4.5  6.5  1.5
He   4.5  6.5  2.5
He   4.5  6.5  3.5
He   4.5  6.5  4.5
He   4.5  6.5  5.5
He   4.5  6.5  6.5
He   4.5  6.5  7.5
He   4.5  7.5  0.5
He   4.5  7.5  1.5
He   4.5  7.5  2.5
He   4.5  7.5  3.5
He   4.5  7.5  4.5
He   4.5  7.5  5.5
He   4.5  7.5  6.5
He   4.5  7.5  7.5
He   5.5  0.5  0.5
He   5.5  0.5  1.5
He   5.5  0.5  2.5
He   5.5  0.5  3.5
He   5.5  0.5  4.5
He   5.5  0.5  5.5
He   5.5  0.5  6.5
He   5.5  0.5  7.5
He   5.5  1.5  0.5
He   5.5  1.5  1.5
He   5.5  1.5  2.5
He   5.5  1.5  3.5
He   5.5  1.5  4.5
He   5.5  1.5  5.5
He   5.5  1.5  6.5
He   5.5  1.5  7.5
He   5.5  2.5  0.5
He   5.5  2.5  1.5
He   5.5  2.5  2.5
He   5.5  2.5  3.5
He   5.5  2.5  4.5
He   5.5  2.5  5.5
He   5.5  2.5  6.5
He   5.5  2.5  7.5
He   5.5  3.5  0.5
He   5.5  3.5  1.5
He   5.5  3.5  2.5
He   5.5  3.5  3.5
He   5.5  3.5  4.5
He   5.5  3.5  5.5
He   5.5  3.5  6.5
He   5.5  3.5  7.5
He   5.5  4.5  0.5
He   5.5  4.5  1.5
He   5.5  4.5  2.5
He   5.5  4.5  3.5
He   5.5  4.5  4.5
He   5.5  4.5  5.5
He   5.5  4.5  6.5
He   5.5  4.5  7.5
He   5.5  5.5  0.5
He   5.5  5.5  1.5
He   5.5  5.5  2.5
He   5.5  5.5  3.5
He   5.5  5.5  4.5
He   5.5  5.5  5.5
He   5.5  5.5  6.5
He   5.5  5.5  7.5
He   5.5  6.5  0.5
He   5.5  6.5  1.5
He   5.5  6.5  2.5
He   5.5  6.5  3.5
He   5.5  6.5  4.5
He   5.5  6.5  5.5
He   5.5  6.5  6.5
He   5.5  6.5  7.5
He   5.5  7.5  0.5
He   5.5  7.5  1.5
He   5.5  7.5  2.5
He   5.5  7.5  3.5
He   5.5  7.5  4.5
He   5.5  7.5  5.5
He   5.5  7.5  6.5
He   5.5  7.5  7.5
He   6.5  0.5  0.5
He   6.5  0.5  1.5
He   6.5  0.5  2.5
He   6.5  0.5  3.5
He   6.5  0.5  4.5
He   6.5  0.5  5.5
He   6.5  0.5  6.5
He   6.5  0.5  7.5
He   6.5  1.5  0.5
He   6.5  1.5  1.5
He   6.5  1.5  2.5
He   6.5  1.5  3.5
He   6.5  1.5  4.5
He   6.5  1.5  5.5
He   6.5  1.5  6.5
He   6.5  1.5  7.5
He   6.5  2.5  0.5
He   6.5  2.5  1.5
He   6.5  2.5  2.5
He   6.5  2.5  3.5
He   6.5  2.5  4.5
He   6.5  2.5  5.5
He   6.5  2.5  6.5
He   6.5  2.5  7.5
He   6.5  3.5  0.5
He   6.5  3.5  1.5
He   6.5  3.5  2.5
He   6.5  3.5  3.5
He   6.5  3.5  4.5
He   6.5  3.5  5.5
He   6.5  3.5  6.5
He   6.5  3.5  7.5
He   6.5  4.5  0.5
He   6.5  4.5  1.5
He   6.5  4.5  2.5
He   6.5  4.5  3.5
He   6.5  4.5  4.5
He   6.5  4.5  5.5
He   6.5  4.5  6.5
He   6.5  4.5  7.5
He   6.5  5.5  0.5
He   6.5  5.5  1.5
He   6.5  5.5  2.5
He   6.5  5.5  3.5
He   6.5  5.5  4.5
He   6.5  5.5  5.5
He   6.5  5.5  6.5
He   6.5  5.5  7.5
He   6.5  6.5  0.5
He   6.5  6.5  1.5
He   6.5  6.5  2.5
He   6.5  6.5  3.5
He   6.5  6.5  4.5
He   6.5  6.5  5.5
He   6.5  6.5  6.5
He   6.5  6.5  7.5
He   6.5  7.5  0.5
He   6.5  7.5  1.5
He   6.5  7.5  2.5
He   6.5  7.5  3.5
He   6.5  7.5  4.5
He   6.5  7.5  5.5
He   6.5  7.5  6.5
He   6.5  7.5  7.5
He   7.5  0.5  0.5
He   7.5  0.5  1.5
He   7.5  0.5  2.5
He   7.5  0.5  3.5
He   7.5  0.5  4.5
He   7.5  0.5  5.5
He   7.5  0.5  6.5
He   7.5  0.5  7.5
He   7.5  1.5  0.5
He   7.5  1.5  1.5
He   7.5  1.5  2.5
He   7.5  1.5  3.5
He   7.5  1.5  4.5
He   7.5  1.5  5.5
He   7.5  1.5  6.5
He   7.5  1.5  7.5
He   7.5  2.5  0.5
He   7.5  2.5  1.5
He   7.5  2.5  2.5
He   7.5  2.5  3.5
He   7.5  2.5  4.5
He   7.5  2.5  5.5
He   7.5  2.5  6.5
He   7.5  2.5  7.5
He   7.5  3.5  0.5
He   7.5  3.5  1.5
He   7.5  3.5  2.5
He   7.5  3.5  3.5
He   7.5  3.5  4.5
He   7.5  3.5  5.5
He   7.5  3.5  6.5
He   7.5  3.5  7.5
He   7.5  4.5  0.5
He   7.5  4.5  1.5
He   7.5  4.5  2.5
He   7.5  4.5  3.5
He   7.5  4.5  4.5
He   7.5  4.5  5.5
He   7.5  4.5  6.5
He   7.5  4.5  7.5
He   7.5  5.5  0.5
He   7.5  5.5  1.5
He   7.5  5.5  2.5
He   7.5  5.5  3.5
He   7.5  5.5  4.5
He   7.5  5.5  5.5
He   7.5  5.5  6.5
He   7.5  5.5  7.5
He   7.5  6.5  0.5
He   7.5  6.5  1.5
He   7.5  6.5  2.5
He   7.5  6.5  3.5
He   7.5  6.5  4.5
He   7.5  6.5  5.5
He   7.5  6.5  6.5
He   7.5  6.5  7.5
He   7.5  7.5  0.5
He   7.5  7.5  1.5
He   7.5  7.5  2.5
He   7.5  7.5  3.5
He   7.5  7.5  4.5
He   7.5  7.5  5.5
He   7.5  7.5  6.5
He   7.5  7.5  7.5
